*----------------------------------------------------------------------
* SPICE Model generated by Murata Manufacturing Co., Ltd.
* Copyright(C) Murata Manufacturing Co., Ltd.
* MURATA P/N : BLM15PX330SN1
* Property : Z@100MHz = 33[ohm]
*----------------------------------------------------------------------
* Applicable Conditions:
*   Frequency Range = 1MHz - 3GHz
*   Temperature = 25 degC
*   DC Bias Current = 0 A
*   Small Signal Operation
*----------------------------------------------------------------------
.SUBCKT BLM15PX330SN1 port1 port2
R1 port1 1 21.25
L1 port1 1 1.090e-7
C2 1 2 2.212e-12
R2 2 3 2.111
L2 1 3 6.730e-10
C1 port1 3 4.617e-12
R3 3 4 25.90
L3 3 4 2.275e-8
R4 4 port2 1.000e-2
.ENDS BLM15PX330SN1
*----------------------------------------------------------------------
